iidm/iidm-xml-converter/src/test/resources/fictitiousSwitchRef-bbk.xml
<?xml version="1.0" encoding="UTF-8"?>
<iidm:network xmlns:iidm="http://www.itesla_project.eu/schema/iidm/1_1" id="fictitious" caseDate="2017-06-25T17:43:00.000+01:00" forecastDistance="0" sourceFormat="test">
    <iidm:substation id="A" country="FR">
        <iidm:voltageLevel id="C" nominalV="225.0" lowVoltageLimit="0.0" topologyKind="BUS_BREAKER">
            <iidm:busBreakerTopology>
                <iidm:bus id="C_1" v="234.40912" angle="0.0"/>
            </iidm:busBreakerTopology>
        </iidm:voltageLevel>
        <iidm:voltageLevel id="N" nominalV="225.0" lowVoltageLimit="220.0" highVoltageLimit="245.00002" topologyKind="BUS_BREAKER">
            <iidm:busBreakerTopology>
                <iidm:bus id="N_21" v="236.44736" angle="15.250391"/>
                <iidm:bus id="N_22" v="236.44736" angle="15.250391"/>
                <iidm:bus id="N_23"/>
                <iidm:bus id="N_24"/>
                <iidm:bus id="N_25"/>
                <iidm:bus id="N_26"/>
                <iidm:bus id="N_27"/>
                <iidm:bus id="N_28"/>
                <iidm:switch id="BJ" name="BK" kind="BREAKER" retained="true" open="false" bus1="N_22" bus2="N_21"/>
            </iidm:busBreakerTopology>
            <iidm:generator id="CB" energySource="HYDRO" minP="0.0" maxP="70.0" voltageRegulatorOn="false" targetP="0.0" targetV="0.0" targetQ="0.0" bus="N_27" connect="true">
                <iidm:reactiveCapabilityCurve>
                    <iidm:point p="0.0" minQ="-59.3" maxQ="60.0"/>
                    <iidm:point p="70.0" minQ="-54.55" maxQ="46.25"/>
                </iidm:reactiveCapabilityCurve>
            </iidm:generator>
            <iidm:generator id="CC" energySource="HYDRO" minP="0.0" maxP="80.0" voltageRegulatorOn="false" targetP="0.0" targetV="0.0" targetQ="0.0" bus="N_28" connect="true">
                <iidm:reactiveCapabilityCurve>
                    <iidm:point p="0.0" minQ="-56.8" maxQ="57.4"/>
                    <iidm:point p="80.0" minQ="-53.514" maxQ="36.4"/>
                </iidm:reactiveCapabilityCurve>
            </iidm:generator>
            <iidm:generator id="CD" energySource="HYDRO" minP="0.0" maxP="35.0" voltageRegulatorOn="true" targetP="21.789589" targetV="236.44736" targetQ="-20.701546" bus="N_21" connect="true" p="-21.789589" q="20.693394">
                <iidm:reactiveCapabilityCurve>
                    <iidm:point p="0.0" minQ="-20.6" maxQ="18.1"/>
                    <iidm:point p="35.0" minQ="-21.725" maxQ="6.3500004"/>
                </iidm:reactiveCapabilityCurve>
            </iidm:generator>
            <iidm:load id="CE" loadType="UNDEFINED" p0="-72.18689" q0="50.168945" bus="N_26" connect="true" p="-72.18689" q="50.168945"/>
            <iidm:load id="CF" loadType="UNDEFINED" p0="8.455854" q0="-23.695925" bus="N_22" connect="true" p="8.455854" q="-23.695925"/>
            <iidm:load id="CG" loadType="UNDEFINED" p0="90.39911" q0="-51.96869" bus="N_22" connect="true" p="90.39911" q="-51.96869"/>
            <iidm:load id="CH" loadType="UNDEFINED" p0="-5.102249" q0="4.9081216" bus="N_22" connect="true" p="-5.102249" q="4.9081216"/>
        </iidm:voltageLevel>
        <iidm:twoWindingsTransformer id="CI" r="2.0" x="14.745" g="0.0" b="3.2E-5" ratedU1="225.0" ratedU2="225.0" bus1="C_1" connect1="true" voltageLevelId1="C" bus2="N_22" connect2="true" voltageLevelId2="N">
            <iidm:phaseTapChanger lowTapPosition="0" tapPosition="22" regulationMode="CURRENT_LIMITER" regulationValue="930.6667" regulating="false">
                <iidm:terminalRef side="ONE"/>
                <iidm:tap rdr="39.78473" rdx="39.784725" phaseShift="-42.8"/>
                <iidm:tap rdr="31.720245" rdx="31.720242" phaseShift="-40.18"/>
                <iidm:tap rdr="23.655737" rdx="23.655735" phaseShift="-37.54"/>
                <iidm:tap rdr="16.263271" rdx="16.263268" phaseShift="-34.9"/>
                <iidm:tap rdr="9.542847" rdx="9.542842" phaseShift="-32.26"/>
                <iidm:tap rdr="3.4944773" rdx="3.4944773" phaseShift="-29.6"/>
                <iidm:tap rdr="-1.8818557" rdx="-1.8818527" phaseShift="-26.94"/>
                <iidm:tap rdr="-7.258195" rdx="-7.2581954" phaseShift="-24.26"/>
                <iidm:tap rdr="-11.962485" rdx="-11.962484" phaseShift="-21.58"/>
                <iidm:tap rdr="-15.994745" rdx="-15.994745" phaseShift="-18.9"/>
                <iidm:tap rdr="-19.354952" rdx="-19.354952" phaseShift="-16.22"/>
                <iidm:tap rdr="-22.043127" rdx="-22.043129" phaseShift="-13.52"/>
                <iidm:tap rdr="-24.73129" rdx="-24.731287" phaseShift="-10.82"/>
                <iidm:tap rdr="-26.747417" rdx="-26.747417" phaseShift="-8.12"/>
                <iidm:tap rdr="-28.091503" rdx="-28.091503" phaseShift="-5.42"/>
                <iidm:tap rdr="-28.763538" rdx="-28.763536" phaseShift="-2.7"/>
                <iidm:tap rdr="-28.763538" rdx="-28.763536"/>
                <iidm:tap rdr="-28.763538" rdx="-28.763536" phaseShift="2.7"/>
                <iidm:tap rdr="-28.091503" rdx="-28.091503" phaseShift="5.42"/>
                <iidm:tap rdr="-26.747417" rdx="-26.747417" phaseShift="8.12"/>
                <iidm:tap rdr="-24.73129" rdx="-24.731287" phaseShift="10.82"/>
                <iidm:tap rdr="-22.043127" rdx="-22.043129" phaseShift="13.52"/>
                <iidm:tap rdr="-19.354952" rdx="-19.354952" phaseShift="16.22"/>
                <iidm:tap rdr="-15.994745" rdx="-15.994745" phaseShift="18.9"/>
                <iidm:tap rdr="-11.962485" rdx="-11.962484" phaseShift="21.58"/>
                <iidm:tap rdr="-7.258195" rdx="-7.2581954" phaseShift="24.26"/>
                <iidm:tap rdr="-1.8818557" rdx="-1.8818527" phaseShift="26.94"/>
                <iidm:tap rdr="3.4944773" rdx="3.4944773" phaseShift="29.6"/>
                <iidm:tap rdr="9.542847" rdx="9.542842" phaseShift="32.26"/>
                <iidm:tap rdr="16.263271" rdx="16.263268" phaseShift="34.9"/>
                <iidm:tap rdr="23.655737" rdx="23.655735" phaseShift="37.54"/>
                <iidm:tap rdr="31.720245" rdx="31.720242" phaseShift="40.18"/>
                <iidm:tap rdr="39.78473" rdx="39.784725" phaseShift="42.8"/>
            </iidm:phaseTapChanger>
            <iidm:currentLimits1 permanentLimit="931.0"/>
            <iidm:currentLimits2 permanentLimit="931.0"/>
        </iidm:twoWindingsTransformer>
    </iidm:substation>
    <iidm:line id="CJ" r="0.009999999" x="0.100000024" g1="0.0" b1="0.0" g2="0.0" b2="0.0" bus1="C_1" connect1="true" voltageLevelId1="C" bus2="N_26" connect2="true" voltageLevelId2="N">
        <iidm:currentLimits1 permanentLimit="931.0"/>
        <iidm:currentLimits2 permanentLimit="931.0">
            <iidm:temporaryLimit name="IST" value="1640.0" fictitious="true"/>
            <iidm:temporaryLimit name="IT1" acceptableDuration="60"/>
        </iidm:currentLimits2>
    </iidm:line>
</iidm:network>